&clm_inparm
 albice = 0.50,0.30
 co2_type = 'diagnostic'
 collapse_urban = .false.
 compname = 'clm2'
 convert_ocean_to_land = .true.
 create_crop_landunit = .false.
 crop_fsat_equals_zero = .false.
 do_sno_oc = .false.
 downscale_hillslope_meteorology = .true.
 fates_harvest_mode = 'no_harvest'
 fates_history_dimlevel = 2,2
 fates_paramfile = '/cluster/work/users/rosief/git/NorESM_alpha07test/components/clm/src/fates/parameter_files/fates_params_twostream.nc'
 fates_parteh_mode = 1
 fates_seeddisp_cadence = 0
 fates_spitfire_mode = 0
 finidat = ' '
 flush_gdd20 = .false.
 for_testing_no_crop_seed_replenishment = .false.
 for_testing_run_ncdiopio_tests = .false.
 for_testing_use_repr_structure_pool = .false.
 for_testing_use_second_grain_pool = .false.
 fsnowaging = '/cluster/shared/noresm/inputdata/lnd/clm2/snicardata/snicar_drdt_bst_fit_60_c070416.nc'
 fsnowoptics = '/cluster/shared/noresm/inputdata/lnd/clm2/snicardata/snicar_optics_5bnd_c013122.nc'
 fsurdat = '/cluster/shared/noresm/inputdata/lnd/clm2/surfdata_esmf/ctsm5.3.0/surfdata_ne30np4.pg3_hist_1850_78pfts_c240908.nc'
 glc_do_dynglacier = .true.
 glc_snow_persistence_max_days = 0
 h2osno_max = 10000.0
 hillslope_fsat_equals_zero = .false.
 hist_fexcl1 = 'FATES_TRIMMING', 'FATES_COLD_STATUS', 'FATES_GDD', 'FATES_NCHILLDAYS', 'FATES_NCOLDDAYS',
         'FATES_DAYSINCE_COLDLEAFOFF', 'FATES_DAYSINCE_COLDLEAFON', 'FATES_CANOPY_SPREAD', 'FATES_VEGC_PF', 'FATES_STOREC_PF',
         'FATES_RECRUITMENT_PF', 'FATES_MORTALITY_PF', 'FATES_PATCHAREA_AP', 'FATES_LAI_AP', 'FATES_CANOPYAREA_AP',
         'FATES_NESTEROV_INDEX', 'FATES_IGNITIONS', 'FATES_FDI', 'FATES_ROS', 'FATES_EFFECT_WSPEED',
         'FATES_FUELCONSUMED', 'FATES_FIRE_INTENSITY', 'FATES_FIRE_INTENSITY_BURNFRAC', 'FATES_BURNFRAC', 'FATES_FUEL_MEF',
         'FATES_FUEL_BULKD', 'FATES_FUEL_EFF_MOIST', 'FATES_FUEL_SAV', 'FATES_FUEL_AMOUNT', 'FATES_FRAGMENTATION_SCALER_SL',
         'FATES_FUEL_MOISTURE_FC', 'FATES_FUEL_AMOUNT_FC', 'FATES_BURNFRAC_AP', 'FATES_FIRE_INTENSITY_BURNFRAC_AP', 'FATES_FUEL_AMOUNT_AP',
         'FATES_FUEL_BURNT_BURNFRAC_FC', 'FATES_LITTER_IN', 'FATES_LITTER_OUT', 'FATES_SEED_BANK', 'FATES_SEEDS_IN',
         'FATES_LITTER_IN_EL', 'FATES_LITTER_OUT_EL', 'FATES_SEED_BANK_EL', 'FATES_SEEDS_IN_LOCAL_EL', 'FATES_SEEDS_IN_EXTERN_EL',
         'FATES_SEED_GERM_EL', 'FATES_SEED_DECAY_EL', 'FATES_STOREC', 'FATES_VEGC', 'FATES_SAPWOODC',
         'FATES_FROOTC', 'FATES_REPROC', 'FATES_STRUCTC', 'FATES_NONSTRUCTC', 'FATES_VEGC_ABOVEGROUND',
         'FATES_CANOPY_VEGC', 'FATES_USTORY_VEGC', 'FATES_PRIMARY_PATCHFUSION_ERR', 'FATES_DISTURBANCE_RATE_FIRE', 'FATES_DISTURBANCE_RATE_LOGGING',
         'FATES_DISTURBANCE_RATE_TREEFALL', 'FATES_HARVEST_WOODPROD_C_FLUX', 'FATES_GPP_CANOPY', 'FATES_AUTORESP_CANOPY', 'FATES_GPP_USTORY',
         'FATES_AUTORESP_USTORY', 'FATES_CROWNAREA_CL', 'FATES_DEMOTION_CARBONFLUX', 'FATES_PROMOTION_CARBONFLUX', 'FATES_MORTALITY_CFLUX_CANOPY',
         'FATES_MORTALITY_CFLUX_USTORY', 'FATES_DDBH_CANOPY_SZ', 'FATES_DDBH_USTORY_SZ', 'FATES_BASALAREA_SZ', 'FATES_VEGC_ABOVEGROUND_SZ',
         'FATES_LAI_CANOPY_SZ', 'FATES_MORTALITY_CANOPY_SZ', 'FATES_NPLANT_USTORY_SZ', 'FATES_LAI_USTORY_SZ', 'FATES_NPLANT_SZ',
         'FATES_NPLANT_AC', 'FATES_MORTALITY_BACKGROUND_SZ', 'FATES_MORTALITY_HYDRAULIC_SZ', 'FATES_MORTALITY_CSTARV_SZ', 'FATES_MORTALITY_IMPACT_SZ',
         'FATES_MORTALITY_FIRE_SZ', 'FATES_MORTALITY_TERMINATION_SZ', 'FATES_MORTALITY_LOGGING_SZ', 'FATES_MORTALITY_FREEZING_SZ', 'FATES_MORTALITY_SENESCENCE_SZ',
         'FATES_MORTALITY_AGESCEN_SZ', 'FATES_MORTALITY_AGESCEN_AC', 'FATES_MORTALITY_USTORY_SZ', 'FATES_FROOTMAINTAR', 'FATES_CROOTMAINTAR',
         'FATES_LSTEMMAINTAR', 'FATES_NEP', 'FATES_HET_RESP', 'FATES_FIRE_CLOSS', 'FATES_FIRE_FLUX_EL',
         'FATES_LITTER_AG_FINE_EL', 'FATES_LITTER_BG_FINE_EL', 'FATES_LITTER_BG_CWD_EL', 'FATES_LITTER_AG_CWD_EL', 'FATES_LITTER_CWD_ELDC',
         'FATES_LEAF_ALLOC', 'FATES_SEED_ALLOC', 'FATES_STEM_ALLOC', 'FATES_FROOT_ALLOC', 'FATES_CROOT_ALLOC',
         'FATES_STORE_ALLOC', 'FATES_AUTORESP', 'FATES_GROWTH_RESP', 'FATES_LEAFMAINTAR', 'FATES_MAINT_RESP',
         'FATES_NPP', 'FATES_NPP_PF'
 hist_fields_list_file = .false.
 hist_ndens = 1
 hist_wrt_matrixcn_diag = .false.
 irrigate = .false.
 maxpatch_glc = 10
 n_dom_landunits = 0
 n_dom_pfts = 0
 nlevsno = 12
 nsegspc = 35
 o3_veg_stress_method = 'unset'
 paramfile = '/cluster/shared/noresm/inputdata/lnd/clm2/paramdata/ctsm60_params.c240822.nc'
 run_zero_weight_urban = .false.
 snicar_dust_optics = 'sahara'
 snicar_numrad_snw = 5
 snicar_snobc_intmix = .true.
 snicar_snodst_intmix = .false.
 snicar_snw_shape = 'hexagonal_plate'
 snicar_solarspec = 'mid_latitude_winter'
 snicar_use_aerosol = .true.
 snow_cover_fraction_method = 'SwensonLawrence2012'
 snow_thermal_cond_method = 'Sturm1997'
 soil_layerstruct_predefined = '20SL_8.5m'
 toosmall_crop = 0.d00
 toosmall_glacier = 0.d00
 toosmall_lake = 0.d00
 toosmall_soil = 0.d00
 toosmall_urban = 0.d00
 toosmall_wetland = 0.d00
 use_bedrock = .false.
 use_cn = .false.
 use_crop = .false.
 use_excess_ice = .true.
 use_fates = .true.
 use_fates_cohort_age_tracking = .false.
 use_fates_ed_prescribed_phys = .false.
 use_fates_ed_st3 = .false.
 use_fates_fixed_biogeog = .true.
 use_fates_inventory_init = .false.
 use_fates_luh = .false.
 use_fates_lupft = .false.
 use_fates_nocomp = .true.
 use_fates_planthydro = .false.
 use_fates_potentialveg = .false.
 use_fates_sp = .true.
 use_fates_tree_damage = .false.
 use_fertilizer = .false.
 use_fun = .false.
 use_grainproduct = .false.
 use_hillslope = .false.
 use_hillslope_routing = .false.
 use_hydrstress = .false.
 use_lai_streams = .false.
 use_lch4 = .false.
 use_luna = .false.
 use_matrixcn = .false.
 use_nitrif_denitrif = .false.
 use_snicar_frc = .false.
 use_soil_matrixcn = .false.
 use_soil_moisture_streams = .false.
 use_subgrid_fluxes = .true.
 use_z0m_snowmelt = .false.
 z0param_method = 'ZengWang2007'
/
&ndepdyn_nml
/
&popd_streams
 popdensmapalgo = 'bilinear'
 stream_fldfilename_popdens = '/cluster/shared/noresm/inputdata/lnd/clm2/firedata/clmforc.Li_2017_HYDEv3.2_CMIP6_hdm_0.5x0.5_AVHRR_simyr1850-2016_c180202.nc'
 stream_meshfile_popdens = '/cluster/shared/noresm/inputdata/lnd/clm2/firedata/clmforc.Li_2017_HYDEv3.2_CMIP6_hdm_0.5x0_ESMFmesh_cdf5_100621.nc'
 stream_year_first_popdens = 1850
 stream_year_last_popdens = 1850
/
&urbantv_streams
 stream_fldfilename_urbantv = '/cluster/shared/noresm/inputdata/lnd/clm2/urbandata/CTSM52_urbantv_Li_2024_0.9x1.25_simyr1849-2106_c20230621.nc'
 stream_meshfile_urbantv = '/cluster/shared/noresm/inputdata/lnd/clm2/urbandata/CLM50_tbuildmax_Oleson_2016_0.9x1_ESMFmesh_cdf5_100621.nc'
 stream_year_first_urbantv = 1850
 stream_year_last_urbantv = 1850
 urbantvmapalgo = 'nn'
/
&light_streams
/
&soil_moisture_streams
/
&lai_streams
/
&atm2lnd_inparm
 glcmec_downscale_longwave = .true.
 lapse_rate = 0.006
 lapse_rate_longwave = 0.032
 longwave_downscaling_limit = 0.5
 precip_repartition_glc_all_rain_t = 0.
 precip_repartition_glc_all_snow_t = -2.
 precip_repartition_nonglc_all_rain_t = 2.
 precip_repartition_nonglc_all_snow_t = 0.
 repartition_rain_snow = .true.
/
&lnd2atm_inparm
 melt_non_icesheet_ice_runoff = .true.
/
&clm_canopyhydrology_inparm
 interception_fraction = 1.0
 maximum_leaf_wetted_fraction = 0.05
 use_clm5_fpi = .true.
/
&cnphenology
 generate_crop_gdds = .false.
 use_mxmat = .true.
/
&cropcal_streams
 cropcals_rx = .false.
 cropcals_rx_adapt = .true.
 model_year_align_cropcal_cultivar_gdds = 2000
 model_year_align_cropcal_swindows = 2000
 stream_fldfilename_cultivar_gdds = '/cluster/shared/noresm/inputdata/lnd/clm2/cropdata/calendars/processed/gdds_20230829_161011.tweaked_latlons.nc'
 stream_fldfilename_gdd20_baseline = '/cluster/shared/noresm/inputdata/lnd/clm2/cropdata/calendars/processed/20230714_cropcals_pr2_1deg.actually2deg.1980-2009.from_GDDB20.interpd_halfdeg.tweaked_latlons.nc'
 stream_fldfilename_swindow_end = '/cluster/shared/noresm/inputdata/lnd/clm2/cropdata/calendars/processed/swindow_ends_ggcmi_crop_calendar_phase3_v1.01.2000-2000.20231005_145103.tweaked_latlons.nc'
 stream_fldfilename_swindow_start = '/cluster/shared/noresm/inputdata/lnd/clm2/cropdata/calendars/processed/swindow_starts_ggcmi_crop_calendar_phase3_v1.01.2000-2000.20231005_145103.tweaked_latlons.nc'
 stream_gdd20_seasons = .false.
 stream_meshfile_cropcal = '/cluster/shared/noresm/inputdata/lnd/clm2/cropdata/calendars/processed/360x720_120830_ESMFmesh_c20210507_cdf5.tweaked_latlons.nc'
 stream_year_first_cropcal_cultivar_gdds = 2000
 stream_year_first_cropcal_swindows = 2000
 stream_year_last_cropcal_cultivar_gdds = 2000
 stream_year_last_cropcal_swindows = 2000
/
&clm_soilhydrology_inparm
/
&dynamic_subgrid
 reset_dynbal_baselines = .false.
/
&cnvegcarbonstate
/
&finidat_consistency_checks
/
&dynpft_consistency_checks
/
&clm_initinterp_inparm
/
&century_soilbgcdecompcascade
/
&soilhydrology_inparm
 baseflow_scalar = 0.001d00
/
&luna
/
&friction_velocity
 zetamaxstable = 0.5d00
/
&mineral_nitrogen_dynamics
/
&soilwater_movement_inparm
 dtmin = 60.
 expensive = 42
 flux_calculation = 1
 inexpensive = 1
 lower_boundary_condition = 2
 soilwater_movement_method = 1
 upper_boundary_condition = 1
 verysmall = 1.e-8
 xtolerlower = 1.e-2
 xtolerupper = 1.e-1
/
&rooting_profile_inparm
 rooting_profile_method_carbon = 1
 rooting_profile_method_water = 1
/
&soil_resis_inparm
 soil_resis_method = 1
/
&bgc_shared
 constrain_stress_deciduous_onset = .true.
/
&canopyfluxes_inparm
 itmax_canopy_fluxes = 40
 use_biomass_heat_storage = .false.
 use_undercanopy_stability = .false.
/
&aerosol
/
&clmu_inparm
 building_temp_method = 1
 urban_explicit_ac = .true.
 urban_hac = 'ON_WASTEHEAT'
 urban_traffic = .false.
/
&clm_soilstate_inparm
 organic_frac_squared = .false.
/
&clm_nitrogen
/
&clm_snowhydrology_inparm
 lotmp_snowdensity_method = 'Slater2017'
 reset_snow = .false.
 reset_snow_glc = .false.
 reset_snow_glc_ela = 1.e9
 snow_dzmax_l_1 = 0.03d00
 snow_dzmax_l_2 = 0.07d00
 snow_dzmax_u_1 = 0.02d00
 snow_dzmax_u_2 = 0.05d00
 snow_dzmin_1 = 0.010d00
 snow_dzmin_2 = 0.015d00
 snow_overburden_compaction_method = 'Vionnet2012'
 upplim_destruct_metamorph = 175.d00
 wind_dependent_snow_density = .true.
/
&hillslope_hydrology_inparm
 hillslope_head_gradient_method = 'Darcy'
 hillslope_transmissivity_method = 'LayerSum'
/
&hillslope_properties_inparm
 hillslope_pft_distribution_method = 'Standard'
 hillslope_soil_profile_method = 'Uniform'
/
&cnprecision_inparm
/
&clm_glacier_behavior
 glacier_region_behavior = 'single_at_atm_topo','UNSET','virtual','multiple'
 glacier_region_ice_runoff_behavior = 'melted','UNSET','remains_ice','remains_ice'
 glacier_region_melt_behavior = 'remains_in_place','UNSET','replaced_by_ice','replaced_by_ice'
/
&crop_inparm
/
&irrigation_inparm
 irrig_depth = 0.6
 irrig_length = 14400
 irrig_method_default = 'drip'
 irrig_min_lai = 0.0
 irrig_start_time = 21600
 irrig_target_smp = -3400.
 irrig_threshold_fraction = 1.0
 limit_irrigation_if_rof_enabled = .false.
 use_groundwater_irrigation = .false.
/
&surfacealbedo_inparm
 snowveg_affects_radiation = .true.
/
&water_tracers_inparm
 enable_water_isotopes = .false.
 enable_water_tracer_consistency_checks = .false.
/
&tillage_inparm
 tillage_mode = 'off'
/
&ctsm_nuopc_cap
/
&clm_humanindex_inparm
 calc_human_stress_indices = 'FAST'
/
&cnmresp_inparm
/
&photosyns_inparm
 leafresp_method = 0
 light_inhibit = .true.
 modifyphoto_and_lmr_forcrop = .true.
 rootstem_acc = .false.
 stomatalcond_method = 'Medlyn2011'
/
&cnfire_inparm
/
&cn_general
/
&nitrif_inparm
/
&lifire_inparm
/
&ch4finundated
/
&exice_streams
 stream_fldfilename_exice = '/cluster/shared/noresm/inputdata/lnd/clm2/paramdata/exice_init_0.125x0.125_c20220516.nc'
 stream_mapalgo_exice = 'bilinear'
 stream_meshfile_exice = '/cluster/shared/noresm/inputdata/lnd/clm2/paramdata/exice_init_0.125x0.125_ESMFmesh_cdf5_c20220802.nc'
 use_excess_ice_streams = .true.
/
&clm_temperature_inparm
 excess_ice_coldstart_depth = 0.5
 excess_ice_coldstart_temp = -3.15
/
&soilbgc_decomp
 soil_decomp_method = 'None'
/
&clm_canopy_inparm
 leaf_mr_vcm = 0.015d00
/
&prigentroughness
 stream_fldfilename_prigentroughness = '/cluster/shared/noresm/inputdata/lnd/clm2/dustemisdata/Prigent_2005_roughness_0.25x0.25_cdf5_c240127.nc'
 stream_meshfile_prigentroughness = '/cluster/shared/noresm/inputdata/lnd/clm2/dustemisdata/dust_0.25x0.25_ESMFmesh_cdf5_c240222.nc'
 use_prigent_roughness = .true.
/
&zendersoilerod
/
&scf_swenson_lawrence_2012_inparm
 int_snow_max = 2000.
 n_melt_glcmec = 10.0d00
/
!#--------------------------------------------------------------------------------------------------------------------------
!# lnd_in:: Comment:
!# This namelist was created using the following command-line:
!#     /cluster/work/users/kjetisaa/NorESM_alpha07_fatessp_newradiation/components/clm/bld/CLM build-namelist -cimeroot /cluster/work/users/kjetisaa/NorESM_alpha07_fatessp_newradiation/cime -infile /cluster/work/users/kjetisaa/n1850.ne30_tn14.hybrid_fatessp.20241111/Buildconf/clmconf/namelist -csmdata /cluster/shared/noresm/inputdata -inputdata /cluster/work/users/kjetisaa/n1850.ne30_tn14.hybrid_fatessp.20241111/Buildconf/ctsm.input_data_list -ignore_ic_year -namelist &clm_inparm  start_ymd=00010101 /  -no-megan -use_case 1850_control -res ne30np4.pg3 -clm_start_type default -envxml_dir /cluster/work/users/kjetisaa/n1850.ne30_tn14.hybrid_fatessp.20241111 -configuration clm -structure standard -glc_nec 10 -co2_ppmv 284.7 -co2_type diagnostic -config /cluster/work/users/kjetisaa/n1850.ne30_tn14.hybrid_fatessp.20241111/Buildconf/clmconf/config_cache.xml -driver nuopc -bgc fates -no-megan -clm_accelerated_spinup off -lnd_tuning_mode clm6_0_cam6.0 -mask tnx1v4
!# 
!# For help on options use: /cluster/work/users/kjetisaa/NorESM_alpha07_fatessp_newradiation/components/clm/bld/CLM build-namelist -help
!#--------------------------------------------------------------------------------------------------------------------------
