! Turn FATES-NOCOMP mode on
use_fates_nocomp = .true.
fates_history_dimlevel = 1,2
hist_fexcl1='ACTUAL_IMMOB','BTRANMN','EFLXBUILD','EFLX_DYNBAL','EFLX_GRND_LAKE','FATES_DEMOTION_CARBONFLUX','FATES_EXCESS_RESP','FATES_MAINT_RESP_UNREDUCED','FATES_PRIMARY_PATCHFUSION_ERR','FATES_PROMOTION_CARBONFLUX','FATES_SEEDS_IN_LOCAL','FATES_UNGERM_SEED_BANK','HEAT_FROM_AC','HIA','HIA_R','HIA_U','HUMIDEX','HUMIDEX_R','HUMIDEX_U','LAKEICEFRAC_SURF','LAKEICETHICK','LNC','MORTALITY_CROWNAREA_CANOPY','MORTALITY_CROWNAREA_UNDERSTORY','QIRRIG_FROM_GW_CONFINED','QIRRIG_FROM_GW_UNCONFINED','QIRRIG_FROM_SURFACE','RSSHA','RSSUN','SWBGT','SWBGT_U','SWBGT_R','TBUILD','URBAN_AC','URBAN_HEAT','WASTEHEAT','WBT','WBT_R','WBT_U','FPG','FSH_R','F_DENIT','F_N2O_DENIT','F_N2O_NIT','F_NIT','GROSS_NMIN','HEAT_FROM_AC','HIA_R','HIA_U','HUMIDEX_R','HUMIDEX_U','LITTERC_HR','LIT_CEL_N','LIT_LIG_N','LIT_LIG_C','LIT_MET_C','LIT_MET_N','MORTALITY_CROWNAREA_CANOPY','MORTALITY_CROWNAREA_UNDERSTORY','NDEP_TO_SMINN','NET_NMIN','NFIX_TO_SMINN','POTENTIAL_IMMOB','POT_F_DENIT','POT_F_NIT','QIRRIG_FROM_GW_CONFINED','QIRRIG_FROM_GW_UNCONFINED','QIRRIG_FROM_SURFACE','SMINN_TO_PLANT','SMIN_NH4','SMIN_NO3','SMIN_NO3_LEACHED','SMIN_NO3_RUNOFF','SOM_ACT_C','SOM_ACT_N','SOM_C_LEACHED','SOM_PAS_C','SOM_PAS_N','SOM_SLO_C','SUPPLEMENT_TO_SMINN','SWBGT_R','SWBGT_U','TOTCOLC','TOTCOLN','TOTECOSYSC','TOTECOSYSN','TOTLITC','TOTLITC_1m','TOTLITN','TOTLITN_1m','TOTSOMC','TOTSOMN','TOT_WOODPRODC','TOT_WOODPRODC_LOSS','TOT_WOODPRODN','TOT_WOODPRODN_LOSS','WASTEHEAT','WBT','WBT_U','WBT_R','DWT_WOODPRODN_GAIN','VENTILATION','LIT_LIG_N_vr','LIT_LIG_N_vr','LIT_MET_N_vr','LIT_CEL_N_vr','SOILN_vr','SOM_ACT_N_vr','SOM_PAS_N_vr','SOM_SLO_N_vr','SMINN_vr','SMIN_NO3_vr','DWT_WOODPRODC_GAIN','EFLX_LH_TOT_R','LAISHA','LAISUN','SMINN','TOTSOMN_1m','SMIN_NH4_vr'
fates_paramfile = '/cluster/shared/noresm/inputdata/lnd/clm2/paramdata/fates_params_api.40.0.0_14pft_c250923_noresm_v26i.nc'
paramfile = '/cluster/shared/noresm/inputdata/lnd/clm2/paramdata/ctsm60_params.250923_v26j.nc'
