!----------------------------------------------------------------------------------
! Users should add all user specific namelist changes below in the form of 
!   namelist_var = new_namelist_value 
! Note - that it does not matter what namelist group the namelist_var belongs to
!----------------------------------------------------------------------------------

 
ice_ic = "/cluster/shared/noresm/inputdata/restart/NOIIAJRARYF8485OC_TL319_tn14_beta02_blom_v1.12.0_20250904/rest/0101-01-01-00000/NOIIAJRARYF8485OC_TL319_tn14_beta02_blom_v1.12.0_20250904.cice.r.0101-01-01-00000.nc"
